Version 4
SHEET 1 880 680
WIRE 80 160 32 160
WIRE 256 160 192 160
SYMBOL 74hct04 128 96 R0
SYMATTR InstName ?
SYMATTR Value ""
TEXT -32 160 Left 2 ;w869
TEXT 264 160 Left 2 ;w349
