Version 4
SHEET 1 1268 680
WIRE 656 288 576 288
WIRE 1264 288 656 288
WIRE 656 320 656 288
WIRE 608 400 544 400
WIRE 656 448 656 416
WIRE 704 448 656 448
WIRE 656 464 656 448
WIRE 608 544 544 544
WIRE 656 592 656 560
WIRE 656 592 576 592
WIRE 1264 592 656 592
SYMBOL nmos4 608 320 R0
WINDOW 0 59 48 Left 2
SYMATTR InstName t1
SYMATTR Value ""
SYMBOL nmos4 608 464 R0
WINDOW 0 60 49 Left 2
SYMATTR InstName t376
SYMATTR Value ""
TEXT 456 400 Left 2 ;w1608
TEXT 472 544 Left 2 ;w869
TEXT 712 448 Left 2 ;w349
TEXT 504 288 Left 2 ;V_cc
TEXT 504 592 Left 2 ;V_ss
